<?xml version="1.0" encoding="UTF-8"?>

<!-- generated on 2025-07-29 23:35:32 by Eclipse SUMO netedit Version 1.21.0
<neteditConfiguration xmlns:xsi="http://www.w3.org/2001/XMLSchema-instance" xsi:noNamespaceSchemaLocation="http://sumo.dlr.de/xsd/neteditConfiguration.xsd">

    <input>
        <sumo-net-file value="C:\Users\Navya\Documents\FNS\DISSERTATION\code\config\dub.net.xml"/>
    </input>

    <output>
        <output-file value="C:\Users\Navya\Documents\FNS\DISSERTATION\code\config\dub.net.xml"/>
    </output>

    <processing>
        <geometry.min-radius.fix.railways value="false"/>
        <geometry.max-grade.fix value="false"/>
        <offset.disable-normalization value="true"/>
        <lefthand value="0"/>
    </processing>

    <junctions>
        <no-turnarounds value="true"/>
        <junctions.corner-detail value="5"/>
        <junctions.limit-turn-speed value="5.50"/>
        <rectangular-lane-cut value="0"/>
    </junctions>

    <pedestrian>
        <walkingareas value="0"/>
    </pedestrian>

</neteditConfiguration>
-->

<net version="1.20" junctionCornerDetail="5" limitTurnSpeed="5.50" xmlns:xsi="http://www.w3.org/2001/XMLSchema-instance" xsi:noNamespaceSchemaLocation="http://sumo.dlr.de/xsd/net_file.xsd">

    <location netOffset="-677026.78,-5908930.12" convBoundary="935.50,0.00,2270.85,1323.21" origBoundary="-6.343109,53.299446,-6.306540,53.312243" projParameter="+proj=utm +zone=29 +ellps=WGS84 +datum=WGS84 +units=m +no_defs"/>

    <type id="highway.footway" priority="1" numLanes="1" speed="2.78" allow="pedestrian" oneway="1" width="2.00"/>
    <type id="highway.residential" priority="3" numLanes="1" speed="13.89" disallow="tram rail_urban rail rail_electric rail_fast ship container cable_car subway aircraft wheelchair scooter drone" oneway="0"/>
    <type id="highway.secondary" priority="11" numLanes="1" speed="27.78" disallow="tram rail_urban rail rail_electric rail_fast ship container cable_car subway aircraft wheelchair scooter drone" oneway="0"/>
    <type id="highway.service" priority="1" numLanes="1" speed="5.56" allow="pedestrian delivery bicycle" oneway="0"/>
    <type id="highway.tertiary" priority="10" numLanes="1" speed="22.22" disallow="tram rail_urban rail rail_electric rail_fast ship container cable_car subway aircraft wheelchair scooter drone" oneway="0"/>

    <edge id=":10148550925_0" function="internal">
        <lane id=":10148550925_0_0" index="0" disallow="tram rail_urban rail rail_electric rail_fast ship container cable_car subway aircraft wheelchair scooter drone" speed="13.89" length="5.54" shape="1211.40,552.26 1205.97,551.13"/>
    </edge>
    <edge id=":10148550925_1" function="internal">
        <lane id=":10148550925_1_0" index="0" disallow="tram rail_urban rail rail_electric rail_fast ship container cable_car subway aircraft wheelchair scooter drone" speed="13.89" length="5.54" shape="1206.63,548.00 1212.05,549.13"/>
    </edge>
    <edge id=":106076203_0" function="internal">
        <lane id=":106076203_0_0" index="0" disallow="tram rail_urban rail rail_electric rail_fast ship container cable_car subway aircraft wheelchair scooter drone" speed="3.65" length="4.67" shape="1147.16,1174.18 1145.82,1174.70 1144.93,1174.57 1144.51,1173.78 1144.54,1172.34"/>
    </edge>
    <edge id=":10646789201_0" function="internal">
        <lane id=":10646789201_0_0" index="0" disallow="tram rail_urban rail rail_electric rail_fast ship container cable_car subway aircraft wheelchair scooter drone" speed="3.65" length="4.67" shape="1883.69,919.77 1884.96,919.10 1885.86,919.14 1886.37,919.87 1886.49,921.31"/>
    </edge>
    <edge id=":10646826808_0" function="internal">
        <lane id=":10646826808_0_0" index="0" allow="pedestrian delivery bicycle" speed="3.65" length="4.67" shape="1713.55,882.35 1714.81,881.66 1715.71,881.67 1716.23,882.39 1716.39,883.83"/>
    </edge>
    <edge id=":10649952384_0" function="internal">
        <lane id=":10649952384_0_0" index="0" disallow="tram rail_urban rail rail_electric rail_fast ship container cable_car subway aircraft wheelchair scooter drone" speed="3.65" length="4.67" shape="1661.93,746.13 1663.29,745.67 1664.17,745.85 1664.56,746.65 1664.45,748.09"/>
    </edge>
    <edge id=":10659782714_0" function="internal">
        <lane id=":10659782714_0_0" index="0" disallow="tram rail_urban rail rail_electric rail_fast ship container cable_car subway aircraft wheelchair scooter drone" speed="3.65" length="4.67" shape="2253.27,1301.42 2253.92,1302.71 2253.87,1303.60 2253.13,1304.10 2251.69,1304.20"/>
    </edge>
    <edge id=":10997744751_0" function="internal">
        <lane id=":10997744751_0_0" index="0" allow="pedestrian delivery bicycle" speed="5.56" length="12.82" shape="1719.83,905.47 1713.51,916.62"/>
    </edge>
    <edge id=":10997744751_1" function="internal">
        <lane id=":10997744751_1_0" index="0" allow="pedestrian delivery bicycle" speed="5.56" length="14.89" shape="1719.83,905.47 1716.79,909.07 1713.10,911.35 1710.16,911.52 1709.35,908.74"/>
    </edge>
    <edge id=":10997744751_2" function="internal">
        <lane id=":10997744751_2_0" index="0" allow="pedestrian delivery bicycle" speed="3.65" length="4.67" shape="1719.83,905.47 1718.55,906.12 1717.65,906.08 1717.15,905.34 1717.05,903.90"/>
    </edge>
    <edge id=":10997744751_3" function="internal">
        <lane id=":10997744751_3_0" index="0" allow="pedestrian delivery bicycle" speed="5.10" length="9.94" shape="1713.22,904.87 1712.97,907.84 1713.52,908.67 1714.88,907.35 1717.05,903.90"/>
    </edge>
    <edge id=":10997744751_4" function="internal">
        <lane id=":10997744751_4_0" index="0" allow="pedestrian delivery bicycle" speed="5.56" length="12.00" shape="1713.22,904.87 1713.28,908.18 1713.99,910.97 1714.40,913.65 1713.51,916.62"/>
    </edge>
    <edge id=":10997744751_5" function="internal">
        <lane id=":10997744751_5_0" index="0" allow="pedestrian delivery bicycle" speed="4.43" length="7.99" shape="1713.22,904.87 1713.70,907.29 1713.22,908.74 1711.77,909.22 1709.35,908.74"/>
    </edge>
    <edge id=":10997744751_6" function="internal">
        <lane id=":10997744751_6_0" index="0" allow="pedestrian delivery bicycle" speed="5.56" length="6.77" shape="1710.73,915.04 1711.11,913.32 1710.45,912.03 1709.58,910.68 1709.35,908.74"/>
    </edge>
    <edge id=":10997744751_7" function="internal">
        <lane id=":10997744751_7_0" index="0" allow="pedestrian delivery bicycle" speed="5.56" length="12.81" shape="1710.73,915.04 1717.05,903.90"/>
    </edge>
    <edge id=":10997744751_8" function="internal">
        <lane id=":10997744751_8_0" index="0" allow="pedestrian delivery bicycle" speed="3.65" length="4.67" shape="1710.73,915.04 1712.02,914.39 1712.91,914.44 1713.41,915.18 1713.51,916.62"/>
    </edge>
    <edge id=":1802406523_0" function="internal">
        <lane id=":1802406523_0_0" index="0" disallow="tram rail_urban rail rail_electric rail_fast ship container cable_car subway aircraft wheelchair scooter drone" speed="3.65" length="4.67" shape="1491.78,1059.38 1490.62,1060.24 1489.74,1060.34 1489.12,1059.70 1488.78,1058.30"/>
    </edge>
    <edge id=":2377975359_0" function="internal">
        <lane id=":2377975359_0_0" index="0" allow="pedestrian delivery bicycle" speed="5.13" length="4.96" shape="1923.22,566.15 1922.37,564.99 1921.40,564.34 1920.31,564.19 1919.10,564.55"/>
        <lane id=":2377975359_0_1" index="1" allow="pedestrian delivery bicycle" speed="6.18" length="7.67" shape="1923.22,566.15 1921.69,563.77 1920.26,562.22 1918.93,561.53 1917.71,561.68"/>
    </edge>
    <edge id=":2377975359_2" function="internal">
        <lane id=":2377975359_2_0" index="0" allow="pedestrian delivery bicycle" speed="3.65" length="4.67" shape="1923.22,566.15 1923.33,564.71 1923.83,563.97 1924.72,563.93 1926.01,564.58"/>
    </edge>
    <edge id=":2377975359_3" function="internal">
        <lane id=":2377975359_3_0" index="0" allow="pedestrian delivery bicycle" speed="8.47" length="15.26" shape="1914.91,555.92 1917.44,555.57 1920.13,556.90 1922.98,559.90 1926.01,564.58"/>
    </edge>
    <edge id=":2377975403_0" function="internal">
        <lane id=":2377975403_0_0" index="0" allow="bus" speed="8.33" length="14.40" shape="1821.86,518.10 1815.24,505.31"/>
    </edge>
    <edge id=":2377975403_1" function="internal">
        <lane id=":2377975403_1_0" index="0" disallow="tram rail_urban rail rail_electric rail_fast ship container cable_car subway aircraft wheelchair scooter drone" speed="7.42" length="11.82" shape="1824.70,516.63 1823.09,514.74 1820.80,513.96 1817.82,514.26 1814.15,515.66"/>
    </edge>
    <edge id=":2377975403_2" function="internal">
        <lane id=":2377975403_2_0" index="0" disallow="tram rail_urban rail rail_electric rail_fast ship container cable_car subway aircraft wheelchair scooter drone" speed="8.33" length="14.39" shape="1824.70,516.63 1818.09,503.84"/>
    </edge>
    <edge id=":2377975403_3" function="internal">
        <lane id=":2377975403_3_0" index="0" disallow="tram rail_urban rail rail_electric rail_fast ship container cable_car subway aircraft wheelchair scooter drone" speed="3.65" length="4.67" shape="1824.70,516.63 1824.85,515.19 1825.38,514.47 1826.27,514.46 1827.54,515.15"/>
    </edge>
    <edge id=":2377975403_4" function="internal">
        <lane id=":2377975403_4_0" index="0" allow="bus" speed="8.33" length="14.38" shape="1823.78,500.91 1830.38,513.68"/>
        <lane id=":2377975403_4_1" index="1" disallow="tram rail_urban rail rail_electric rail_fast ship container cable_car subway aircraft wheelchair scooter drone" speed="8.33" length="14.38" shape="1820.93,502.38 1827.54,515.15"/>
    </edge>
    <edge id=":2377975403_6" function="internal">
        <lane id=":2377975403_6_0" index="0" disallow="tram rail_urban rail rail_electric rail_fast ship container cable_car subway aircraft wheelchair scooter drone" speed="8.33" length="16.99" shape="1820.93,502.38 1822.05,506.21 1821.30,509.70 1818.66,512.85 1814.15,515.66"/>
    </edge>
    <edge id=":2377975403_7" function="internal">
        <lane id=":2377975403_7_0" index="0" disallow="tram rail_urban rail rail_electric rail_fast ship container cable_car subway aircraft wheelchair scooter drone" speed="3.65" length="4.67" shape="1820.93,502.38 1820.77,503.81 1820.24,504.53 1819.35,504.54 1818.09,503.84"/>
    </edge>
    <edge id=":2377975403_8" function="internal">
        <lane id=":2377975403_8_0" index="0" allow="bus" speed="6.46" length="9.03" shape="1812.75,512.78 1814.81,511.39 1815.91,509.69 1816.06,507.66 1815.24,505.31"/>
        <lane id=":2377975403_8_1" index="1" disallow="tram rail_urban rail rail_electric rail_fast ship container cable_car subway aircraft wheelchair scooter drone" speed="7.28" length="11.77" shape="1812.75,512.78 1816.07,510.78 1818.06,508.62 1818.74,506.31 1818.09,503.84"/>
    </edge>
    <edge id=":2377975403_10" function="internal">
        <lane id=":2377975403_10_0" index="0" disallow="tram rail_urban rail rail_electric rail_fast ship container cable_car subway aircraft wheelchair scooter drone" speed="8.33" length="16.84" shape="1812.75,512.78 1817.74,510.96 1821.86,510.75 1825.13,512.15 1827.54,515.15"/>
    </edge>
    <edge id=":2377975403_11" function="internal">
        <lane id=":2377975403_11_0" index="0" disallow="tram rail_urban rail rail_electric rail_fast ship container cable_car subway aircraft wheelchair scooter drone" speed="3.65" length="4.67" shape="1812.75,512.78 1814.18,512.98 1814.89,513.53 1814.88,514.42 1814.15,515.66"/>
    </edge>
    <edge id=":2483989055_0" function="internal">
        <lane id=":2483989055_0_0" index="0" allow="pedestrian delivery bicycle" speed="3.65" length="4.67" shape="1470.15,829.36 1468.71,829.50 1467.90,829.13 1467.70,828.26 1468.13,826.88"/>
    </edge>
    <edge id=":2483989057_0" function="internal">
        <lane id=":2483989057_0_0" index="0" allow="bus" speed="13.89" length="20.16" shape="1537.12,844.17 1523.25,829.53"/>
    </edge>
    <edge id=":2483989057_1" function="internal">
        <lane id=":2483989057_1_0" index="0" disallow="tram rail_urban rail rail_electric rail_fast ship container cable_car subway aircraft wheelchair scooter drone" speed="13.89" length="2.99" shape="1539.44,841.96 1536.91,840.36"/>
    </edge>
    <edge id=":2483989057_2" function="internal">
        <lane id=":2483989057_2_0" index="0" disallow="tram rail_urban rail rail_electric rail_fast ship container cable_car subway aircraft wheelchair scooter drone" speed="13.89" length="20.16" shape="1539.44,841.96 1525.57,827.33"/>
    </edge>
    <edge id=":2483989057_3" function="internal">
        <lane id=":2483989057_3_0" index="0" disallow="tram rail_urban rail rail_electric rail_fast ship container cable_car subway aircraft wheelchair scooter drone" speed="3.65" length="1.44" shape="1539.44,841.96 1539.19,840.54"/>
    </edge>
    <edge id=":2483989057_12" function="internal">
        <lane id=":2483989057_12_0" index="0" disallow="tram rail_urban rail rail_electric rail_fast ship container cable_car subway aircraft wheelchair scooter drone" speed="13.89" length="14.14" shape="1536.91,840.36 1535.09,839.19 1530.79,838.79 1526.76,839.03 1523.23,838.18"/>
    </edge>
    <edge id=":2483989057_13" function="internal">
        <lane id=":2483989057_13_0" index="0" disallow="tram rail_urban rail rail_electric rail_fast ship container cable_car subway aircraft wheelchair scooter drone" speed="3.65" length="3.23" shape="1539.19,840.54 1539.50,839.70 1540.35,839.44 1541.76,839.76"/>
    </edge>
    <edge id=":2483989057_4" function="internal">
        <lane id=":2483989057_4_0" index="0" allow="bus" speed="13.89" length="20.15" shape="1530.22,822.93 1544.08,837.56"/>
        <lane id=":2483989057_4_1" index="1" disallow="tram rail_urban rail rail_electric rail_fast ship container cable_car subway aircraft wheelchair scooter drone" speed="13.89" length="20.15" shape="1527.89,825.13 1541.76,839.76"/>
    </edge>
    <edge id=":2483989057_6" function="internal">
        <lane id=":2483989057_6_0" index="0" disallow="tram rail_urban rail rail_electric rail_fast ship container cable_car subway aircraft wheelchair scooter drone" speed="6.69" length="2.48" shape="1527.89,825.13 1528.98,827.36"/>
    </edge>
    <edge id=":2483989057_7" function="internal">
        <lane id=":2483989057_7_0" index="0" disallow="tram rail_urban rail rail_electric rail_fast ship container cable_car subway aircraft wheelchair scooter drone" speed="3.65" length="1.44" shape="1527.89,825.13 1528.14,826.55"/>
    </edge>
    <edge id=":2483989057_14" function="internal">
        <lane id=":2483989057_14_0" index="0" disallow="tram rail_urban rail rail_electric rail_fast ship container cable_car subway aircraft wheelchair scooter drone" speed="6.69" length="16.70" shape="1528.98,827.36 1530.32,830.09 1530.01,835.26 1527.48,838.63 1523.23,838.18"/>
    </edge>
    <edge id=":2483989057_15" function="internal">
        <lane id=":2483989057_15_0" index="0" disallow="tram rail_urban rail rail_electric rail_fast ship container cable_car subway aircraft wheelchair scooter drone" speed="3.65" length="3.23" shape="1528.14,826.55 1527.83,827.39 1526.98,827.65 1525.57,827.33"/>
    </edge>
    <edge id=":2483989057_8" function="internal">
        <lane id=":2483989057_8_0" index="0" allow="bus" speed="6.14" length="15.84" shape="1522.03,833.69 1526.72,836.26 1528.49,836.43 1527.33,834.18 1523.25,829.53"/>
        <lane id=":2483989057_8_1" index="1" disallow="tram rail_urban rail rail_electric rail_fast ship container cable_car subway aircraft wheelchair scooter drone" speed="8.00" length="28.39" shape="1522.03,833.69 1530.81,838.54 1534.33,839.10 1532.58,835.36 1525.57,827.33"/>
    </edge>
    <edge id=":2483989057_10" function="internal">
        <lane id=":2483989057_10_0" index="0" disallow="tram rail_urban rail rail_electric rail_fast ship container cable_car subway aircraft wheelchair scooter drone" speed="13.89" length="21.10" shape="1522.03,833.69 1525.94,834.72 1530.91,834.99 1536.37,836.12 1541.76,839.76"/>
    </edge>
    <edge id=":2483989057_11" function="internal">
        <lane id=":2483989057_11_0" index="0" disallow="tram rail_urban rail rail_electric rail_fast ship container cable_car subway aircraft wheelchair scooter drone" speed="4.17" length="6.79" shape="1522.03,833.69 1524.02,834.36 1524.88,835.34 1524.62,836.61 1523.23,838.18"/>
    </edge>
    <edge id=":25808721_0" function="internal">
        <lane id=":25808721_0_0" index="0" disallow="tram rail_urban rail rail_electric rail_fast ship container cable_car subway aircraft wheelchair scooter drone" speed="3.65" length="4.67" shape="1508.00,0.06 1508.76,-1.17 1509.54,-1.60 1510.36,-1.23 1511.20,-0.06"/>
    </edge>
    <edge id=":3910183326_0" function="internal">
        <lane id=":3910183326_0_0" index="0" allow="pedestrian delivery bicycle" speed="3.65" length="4.67" shape="1727.54,885.39 1728.83,884.74 1729.72,884.79 1730.22,885.53 1730.32,886.97"/>
    </edge>
    <edge id=":3910183333_0" function="internal">
        <lane id=":3910183333_0_0" index="0" disallow="tram rail_urban rail rail_electric rail_fast ship container cable_car subway aircraft wheelchair scooter drone" speed="3.65" length="4.67" shape="1485.96,815.05 1485.39,813.72 1485.50,812.83 1486.27,812.38 1487.71,812.37"/>
    </edge>
    <edge id=":4804465509_0" function="internal">
        <lane id=":4804465509_0_0" index="0" allow="bus" speed="8.33" length="0.34" shape="1505.22,11.53 1505.21,11.16"/>
        <lane id=":4804465509_0_1" index="1" disallow="tram rail_urban rail rail_electric rail_fast ship container cable_car subway aircraft wheelchair scooter drone" speed="8.33" length="0.34" shape="1508.42,11.36 1508.41,11.05"/>
    </edge>
    <edge id=":4804465509_2" function="internal">
        <lane id=":4804465509_2_0" index="0" allow="bus" speed="8.33" length="0.23" shape="1514.80,10.81 1514.81,11.02"/>
        <lane id=":4804465509_2_1" index="1" disallow="tram rail_urban rail rail_electric rail_fast ship container cable_car subway aircraft wheelchair scooter drone" speed="8.33" length="0.23" shape="1511.60,10.93 1511.62,11.19"/>
    </edge>
    <edge id=":4835431330_0" function="internal">
        <lane id=":4835431330_0_0" index="0" disallow="tram rail_urban rail rail_electric rail_fast ship container cable_car subway aircraft wheelchair scooter drone" speed="6.25" length="5.34" shape="1331.54,811.34 1330.40,812.14 1329.20,812.56 1327.92,812.60 1326.57,812.24"/>
    </edge>
    <edge id=":4835431330_1" function="internal">
        <lane id=":4835431330_1_0" index="0" disallow="tram rail_urban rail rail_electric rail_fast ship container cable_car subway aircraft wheelchair scooter drone" speed="4.00" length="1.78" shape="1327.74,809.27 1328.19,809.38 1328.62,809.37 1329.02,809.23 1329.40,808.97"/>
    </edge>
    <edge id=":4860680774_0" function="internal">
        <lane id=":4860680774_0_0" index="0" disallow="tram rail_urban rail rail_electric rail_fast ship container cable_car subway aircraft wheelchair scooter drone" speed="8.33" length="13.68" shape="1618.62,961.44 1608.00,952.81"/>
    </edge>
    <edge id=":4860680774_1" function="internal">
        <lane id=":4860680774_1_0" index="0" disallow="tram rail_urban rail rail_electric rail_fast ship container cable_car subway aircraft wheelchair scooter drone" speed="8.00" length="14.20" shape="1618.62,961.44 1615.98,958.59 1614.88,955.57 1615.34,952.39 1617.34,949.06"/>
    </edge>
    <edge id=":4860680774_2" function="internal">
        <lane id=":4860680774_2_0" index="0" disallow="tram rail_urban rail rail_electric rail_fast ship container cable_car subway aircraft wheelchair scooter drone" speed="3.65" length="4.67" shape="1618.62,961.44 1618.19,960.06 1618.38,959.19 1619.20,958.82 1620.64,958.96"/>
    </edge>
    <edge id=":4860680774_3" function="internal">
        <lane id=":4860680774_3_0" index="0" disallow="tram rail_urban rail rail_electric rail_fast ship container cable_car subway aircraft wheelchair scooter drone" speed="6.51" length="9.04" shape="1619.82,951.07 1618.55,953.20 1618.26,955.22 1618.96,957.14 1620.64,958.96"/>
    </edge>
    <edge id=":4860680774_4" function="internal">
        <lane id=":4860680774_4_0" index="0" disallow="tram rail_urban rail rail_electric rail_fast ship container cable_car subway aircraft wheelchair scooter drone" speed="7.85" length="13.62" shape="1619.82,951.07 1617.00,953.75 1614.09,954.93 1611.09,954.61 1608.00,952.81"/>
    </edge>
    <edge id=":4860680774_5" function="internal">
        <lane id=":4860680774_5_0" index="0" disallow="tram rail_urban rail rail_electric rail_fast ship container cable_car subway aircraft wheelchair scooter drone" speed="3.65" length="4.67" shape="1619.82,951.07 1618.44,951.50 1617.57,951.31 1617.20,950.49 1617.34,949.06"/>
    </edge>
    <edge id=":4860680774_6" function="internal">
        <lane id=":4860680774_6_0" index="0" disallow="tram rail_urban rail rail_electric rail_fast ship container cable_car subway aircraft wheelchair scooter drone" speed="6.32" length="8.46" shape="1610.02,950.33 1611.90,951.40 1613.74,951.55 1615.56,950.77 1617.34,949.06"/>
    </edge>
    <edge id=":4860680774_7" function="internal">
        <lane id=":4860680774_7_0" index="0" disallow="tram rail_urban rail rail_electric rail_fast ship container cable_car subway aircraft wheelchair scooter drone" speed="8.33" length="13.68" shape="1610.02,950.33 1620.64,958.96"/>
    </edge>
    <edge id=":4860680774_8" function="internal">
        <lane id=":4860680774_8_0" index="0" disallow="tram rail_urban rail rail_electric rail_fast ship container cable_car subway aircraft wheelchair scooter drone" speed="3.65" length="4.67" shape="1610.02,950.33 1610.45,951.71 1610.25,952.58 1609.44,952.95 1608.00,952.81"/>
    </edge>
    <edge id=":4860680776_0" function="internal">
        <lane id=":4860680776_0_0" index="0" allow="pedestrian delivery bicycle" speed="3.65" length="4.67" shape="1567.24,935.80 1568.59,935.31 1569.47,935.47 1569.88,936.26 1569.80,937.70"/>
    </edge>
    <edge id=":4862011405_0" function="internal">
        <lane id=":4862011405_0_0" index="0" allow="pedestrian delivery bicycle" speed="3.65" length="4.67" shape="1181.82,790.66 1180.51,791.27 1179.62,791.20 1179.14,790.45 1179.07,789.00"/>
    </edge>
    <edge id=":4862011406_0" function="internal">
        <lane id=":4862011406_0_0" index="0" allow="pedestrian delivery bicycle" speed="5.14" length="5.12" shape="1134.47,759.50 1133.15,758.95 1131.97,758.93 1130.94,759.43 1130.06,760.47"/>
    </edge>
    <edge id=":4862011406_1" function="internal">
        <lane id=":4862011406_1_0" index="0" allow="pedestrian delivery bicycle" speed="6.84" length="10.30" shape="1134.47,759.50 1132.25,757.74 1131.14,755.71 1131.16,753.39 1132.29,750.79"/>
    </edge>
    <edge id=":4862011406_2" function="internal">
        <lane id=":4862011406_2_0" index="0" allow="pedestrian delivery bicycle" speed="3.65" length="4.67" shape="1134.47,759.50 1133.84,758.21 1133.89,757.31 1134.64,756.82 1136.08,756.73"/>
    </edge>
    <edge id=":4862011406_3" function="internal">
        <lane id=":4862011406_3_0" index="0" allow="pedestrian delivery bicycle" speed="5.01" length="5.03" shape="1135.01,752.48 1134.46,753.75 1134.45,754.88 1134.99,755.87 1136.08,756.73"/>
    </edge>
    <edge id=":4862011406_4" function="internal">
        <lane id=":4862011406_4_0" index="0" allow="pedestrian delivery bicycle" speed="8.33" length="9.40" shape="1135.01,752.48 1130.06,760.47"/>
    </edge>
    <edge id=":4862011406_5" function="internal">
        <lane id=":4862011406_5_0" index="0" allow="pedestrian delivery bicycle" speed="3.65" length="4.67" shape="1135.01,752.48 1133.70,753.08 1132.81,753.00 1132.34,752.23 1132.29,750.79"/>
    </edge>
    <edge id=":4862011406_6" function="internal">
        <lane id=":4862011406_6_0" index="0" allow="pedestrian delivery bicycle" speed="8.33" length="9.40" shape="1127.34,758.78 1132.29,750.79"/>
    </edge>
    <edge id=":4862011406_7" function="internal">
        <lane id=":4862011406_7_0" index="0" allow="pedestrian delivery bicycle" speed="6.94" length="10.17" shape="1127.34,758.78 1129.11,756.69 1131.15,755.65 1133.47,755.67 1136.08,756.73"/>
    </edge>
    <edge id=":4862011406_8" function="internal">
        <lane id=":4862011406_8_0" index="0" allow="pedestrian delivery bicycle" speed="3.65" length="4.67" shape="1127.34,758.78 1128.65,758.18 1129.54,758.26 1130.01,759.03 1130.06,760.47"/>
    </edge>
    <edge id=":4862011407_0" function="internal">
        <lane id=":4862011407_0_0" index="0" allow="pedestrian delivery bicycle" speed="8.33" length="9.30" shape="1186.67,782.60 1181.87,790.57"/>
    </edge>
    <edge id=":4862011407_1" function="internal">
        <lane id=":4862011407_1_0" index="0" allow="pedestrian delivery bicycle" speed="6.90" length="10.17" shape="1186.67,782.60 1184.92,784.73 1182.89,785.81 1180.58,785.81 1177.99,784.76"/>
    </edge>
    <edge id=":4862011407_2" function="internal">
        <lane id=":4862011407_2_0" index="0" allow="pedestrian delivery bicycle" speed="3.65" length="4.67" shape="1186.67,782.60 1185.36,783.21 1184.47,783.14 1183.99,782.39 1183.92,780.95"/>
    </edge>
    <edge id=":4862011407_3" function="internal">
        <lane id=":4862011407_3_0" index="0" allow="pedestrian delivery bicycle" speed="5.09" length="5.06" shape="1179.59,781.99 1180.89,782.52 1182.05,782.53 1183.06,782.00 1183.92,780.95"/>
    </edge>
    <edge id=":4862011407_4" function="internal">
        <lane id=":4862011407_4_0" index="0" allow="pedestrian delivery bicycle" speed="6.82" length="10.16" shape="1179.59,781.99 1181.80,783.73 1182.92,785.74 1182.94,788.02 1181.87,790.57"/>
    </edge>
    <edge id=":4862011407_5" function="internal">
        <lane id=":4862011407_5_0" index="0" allow="pedestrian delivery bicycle" speed="3.65" length="4.67" shape="1179.59,781.99 1180.23,783.28 1180.17,784.18 1179.42,784.67 1177.99,784.76"/>
    </edge>
    <edge id=":4862011407_6" function="internal">
        <lane id=":4862011407_6_0" index="0" allow="pedestrian delivery bicycle" speed="4.99" length="4.93" shape="1179.13,788.91 1179.64,787.68 1179.62,786.58 1179.07,785.61 1177.99,784.76"/>
    </edge>
    <edge id=":4862011407_7" function="internal">
        <lane id=":4862011407_7_0" index="0" allow="pedestrian delivery bicycle" speed="8.33" length="9.30" shape="1179.13,788.91 1183.92,780.95"/>
    </edge>
    <edge id=":4862011407_8" function="internal">
        <lane id=":4862011407_8_0" index="0" allow="pedestrian delivery bicycle" speed="3.65" length="4.67" shape="1179.13,788.91 1180.43,788.30 1181.33,788.37 1181.80,789.13 1181.87,790.57"/>
    </edge>
    <edge id=":4862011408_0" function="internal">
        <lane id=":4862011408_0_0" index="0" allow="pedestrian delivery bicycle" speed="3.65" length="4.67" shape="1136.38,744.20 1137.69,743.60 1138.58,743.68 1139.05,744.44 1139.10,745.88"/>
    </edge>
    <edge id=":4862011409_0" function="internal">
        <lane id=":4862011409_0_0" index="0" allow="pedestrian delivery bicycle" speed="3.65" length="4.67" shape="1124.77,768.99 1123.46,769.59 1122.57,769.51 1122.10,768.75 1122.05,767.31"/>
    </edge>
    <edge id=":54815352_0" function="internal">
        <lane id=":54815352_0_0" index="0" allow="bus" speed="8.33" length="0.24" shape="1695.18,268.45 1695.12,268.34"/>
        <lane id=":54815352_0_1" index="1" disallow="tram rail_urban rail rail_electric rail_fast ship container cable_car subway aircraft wheelchair scooter drone" speed="8.33" length="0.24" shape="1698.05,267.04 1697.88,266.72"/>
    </edge>
    <edge id=":54815352_2" function="internal">
        <lane id=":54815352_2_0" index="0" allow="bus" speed="8.33" length="0.73" shape="1703.40,263.48 1703.80,264.23"/>
        <lane id=":54815352_2_1" index="1" disallow="tram rail_urban rail rail_electric rail_fast ship container cable_car subway aircraft wheelchair scooter drone" speed="8.33" length="0.73" shape="1700.64,265.10 1700.92,265.63"/>
    </edge>
    <edge id=":54859730_0" function="internal">
        <lane id=":54859730_0_0" index="0" disallow="tram rail_urban rail rail_electric rail_fast ship container cable_car subway aircraft wheelchair scooter drone" speed="13.89" length="14.40" shape="1399.76,586.42 1397.76,600.69"/>
    </edge>
    <edge id=":54859730_1" function="internal">
        <lane id=":54859730_1_0" index="0" disallow="tram rail_urban rail rail_electric rail_fast ship container cable_car subway aircraft wheelchair scooter drone" speed="7.73" length="4.18" shape="1399.76,586.42 1398.55,590.43"/>
    </edge>
    <edge id=":54859730_2" function="internal">
        <lane id=":54859730_2_0" index="0" disallow="tram rail_urban rail rail_electric rail_fast ship container cable_car subway aircraft wheelchair scooter drone" speed="3.65" length="1.44" shape="1399.76,586.42 1398.79,587.49"/>
    </edge>
    <edge id=":54859730_9" function="internal">
        <lane id=":54859730_9_0" index="0" disallow="tram rail_urban rail rail_electric rail_fast ship container cable_car subway aircraft wheelchair scooter drone" speed="7.73" length="10.70" shape="1398.55,590.43 1396.38,592.86 1393.23,593.70 1389.11,592.97"/>
    </edge>
    <edge id=":54859730_10" function="internal">
        <lane id=":54859730_10_0" index="0" disallow="tram rail_urban rail rail_electric rail_fast ship container cable_car subway aircraft wheelchair scooter drone" speed="3.65" length="3.23" shape="1398.79,587.49 1397.94,587.77 1397.21,587.25 1396.59,585.95"/>
    </edge>
    <edge id=":54859730_3" function="internal">